35
OMe-PAI_eclipsed-cis
 C    2.580300   -0.488300   -0.059900
 C    2.701500    0.908900    0.018000
 C    3.936400    1.553500    0.020500
 C    5.062900    0.757300   -0.057700
 C    4.962100   -0.641500   -0.135900
 C    3.733600   -1.272400   -0.137800
 C    1.168600   -0.789600   -0.037300
 C    0.514800    0.434900    0.051900
 H    4.014300    2.631500    0.080500
 H    6.042100    1.220000   -0.058600
 H    5.867800   -1.232700   -0.195800
 H    3.656700   -2.350400   -0.197900
 H   -0.531900    0.675800    0.094000
 N    1.424000    1.437600    0.084800
 C    1.114400    2.852100    0.176900
 H    1.489800    3.380800   -0.699900
 H    0.035200    2.972800    0.229600
 H    1.564000    3.279900    1.073600
 N    0.769100   -2.123000   -0.109900
 N   -0.407600   -2.538300   -0.092900
 C   -1.496800   -1.616500    0.017100
 C   -1.981300   -1.257200    1.272500
 C   -2.115900   -1.131100   -1.122100
 C   -3.046700   -0.385300    1.378200
 H   -1.508800   -1.653300    2.163100
 C   -3.188600   -0.251500   -1.023200
 H   -1.749700   -1.427400   -2.097500
 C   -3.652800    0.131600    0.231600
 H   -3.432400   -0.088600    2.345300
 H   -3.649400    0.120400   -1.926900
 O   -4.688200    0.982800    0.440500
 C   -5.334300    1.542400   -0.692100
 H   -4.638100    2.132300   -1.294500
 H   -5.787800    0.766400   -1.314500
 H   -6.113500    2.192200   -0.302000
