35
OMe-PAI_anti-trans
 C   -2.438500    0.432000   -0.000100
 C   -3.769200   -0.038800    0.000000
 C   -4.864900    0.818800   -0.000200
 C   -4.608400    2.177600   -0.000300
 C   -3.294500    2.667100   -0.000400
 C   -2.208400    1.811100   -0.000200
 C   -1.604800   -0.748400    0.000100
 C   -2.452100   -1.835300    0.000200
 H   -5.879000    0.439700   -0.000100
 H   -5.437000    2.875100   -0.000400
 H   -3.130000    3.737800   -0.000500
 H   -1.196100    2.187200   -0.000300
 H   -2.196600   -2.883200    0.000300
 N   -3.743500   -1.423500    0.000200
 C   -4.915000   -2.277400    0.000200
 H   -5.520400   -2.094600   -0.888700
 H   -4.593200   -3.315900    0.000800
 H   -5.520800   -2.093800    0.888600
 N   -0.235600   -0.915900    0.000100
 N    0.439900    0.138400    0.000100
 C    1.841600   -0.053500    0.000000
 C    2.474000   -1.302600   -0.000700
 C    2.621400    1.094500    0.000700
 C    3.847200   -1.383800   -0.000800
 H    1.867900   -2.197600   -0.001300
 C    4.008600    1.024500    0.000600
 H    2.125300    2.057300    0.001200
 C    4.627700   -0.221400   -0.000100
 H    4.352700   -2.341300   -0.001400
 H    4.586800    1.937000    0.001200
 O    5.967200   -0.412400   -0.000200
 C    6.810300    0.730100    0.000500
 H    6.649800    1.340400   -0.891900
 H    6.649600    1.339300    0.893700
 H    7.828700    0.350500    0.000400
