35
OMe-PAI_tt_TS_1
 C   -2.527600    0.487900    0.172200
 C   -3.794100   -0.097200   -0.061600
 C   -4.937200    0.682500   -0.249300
 C   -4.791500    2.054200   -0.192400
 C   -3.539500    2.650000    0.043700
 C   -2.408300    1.881200    0.225400
 C   -1.605500   -0.600100    0.303400
 C   -2.313500   -1.754900    0.160200
 H   -5.903700    0.229900   -0.433000
 H   -5.659900    2.686100   -0.333600
 H   -3.466600    3.730100    0.081000
 H   -1.444700    2.343300    0.402600
 H   -1.975000   -2.777400    0.206000
 N   -3.642000   -1.459600   -0.063300
 C   -4.699700   -2.423300   -0.284100
 H   -5.127800   -2.310100   -1.282100
 H   -4.287600   -3.425600   -0.192400
 H   -5.491700   -2.302500    0.457100
 N   -0.224600   -0.478100    0.622900
 N    0.504400   -0.369000   -0.375600
 C    1.889200   -0.231400   -0.106800
 C    2.451600   -0.216000    1.174300
 C    2.711000   -0.105700   -1.216300
 C    3.810100   -0.077300    1.324100
 H    1.805200   -0.314400    2.035200
 C    4.084500    0.035300   -1.077400
 H    2.256500   -0.119800   -2.198900
 C    4.638700    0.049400    0.199700
 H    4.270300   -0.062600    2.303800
 H    4.702700    0.131600   -1.957700
 O    5.955400    0.179200    0.458000
 C    6.852500    0.310300   -0.637200
 H    6.815100   -0.569600   -1.283900
 H    6.631200    1.206400   -1.221900
 H    7.843800    0.397800   -0.201100
