35
OMe-PAI_inversion_TS_3
 C    1.965600    0.212400    0.005300
 C    3.345200    0.506900   -0.018800
 C    3.831700    1.808600    0.037700
 C    2.903300    2.829900    0.119900
 C    1.528200    2.559300    0.143900
 C    1.047500    1.264000    0.087600
 C    1.879200   -1.225500   -0.072300
 C    3.166800   -1.711000   -0.137800
 H    4.893800    2.016900    0.018100
 H    3.244800    3.856500    0.165800
 H    0.828700    3.383800    0.207900
 H   -0.017000    1.075500    0.105900
 H    3.492800   -2.737000   -0.204800
 N    4.047800   -0.686800   -0.105900
 C    5.493700   -0.797300   -0.153900
 H    5.936500   -0.375200    0.748900
 H    5.764000   -1.848000   -0.222900
 H    5.885400   -0.271600   -1.025300
 N    0.789200   -2.094500   -0.088900
 N   -0.328900   -1.598800   -0.015900
 C   -1.548900   -1.078600    0.057300
 C   -2.186300   -0.903400    1.308500
 C   -2.242200   -0.670900   -1.097900
 C   -3.451200   -0.358200    1.374100
 H   -1.669700   -1.200100    2.211700
 C   -3.518900   -0.129600   -1.005200
 H   -1.771900   -0.784800   -2.065500
 C   -4.137300    0.033100    0.226600
 H   -3.933500   -0.226300    2.335400
 H   -4.014100    0.165300   -1.920300
 O   -5.389900    0.559900    0.415800
 C   -6.103200    0.971900   -0.732400
 H   -5.574600    1.765000   -1.271100
 H   -6.283800    0.135400   -1.415300
 H   -7.057300    1.355700   -0.377800
