35
OMe-PAI_inversion_TS_4
 C   -2.949000   -0.633000   -0.050800
 C   -3.573000    0.629100   -0.016600
 C   -4.958000    0.775200   -0.044600
 C   -5.714000   -0.379400   -0.108100
 C   -5.108800   -1.646700   -0.142700
 C   -3.735400   -1.786400   -0.114800
 C   -1.536700   -0.377700   -0.006100
 C   -1.369800    0.991100    0.051100
 H   -5.425700    1.751000   -0.017900
 H   -6.794200   -0.306700   -0.131600
 H   -5.735300   -2.528800   -0.192400
 H   -3.272700   -2.764800   -0.141600
 H   -0.459400    1.567700    0.094900
 N   -2.581500    1.595400    0.045200
 C   -2.821100    3.026000    0.093300
 H   -3.412400    3.280800    0.973500
 H   -1.865800    3.541800    0.146800
 H   -3.351900    3.351600   -0.802000
 N   -0.568400   -1.390000   -0.021100
 N    0.606900   -1.053600    0.024000
 C    1.889700   -0.707500    0.083900
 C    2.543100   -0.575300    1.331900
 C    2.639500   -0.470200   -1.082900
 C    3.875900   -0.225200    1.383600
 H    1.986800   -0.751100    2.243000
 C    3.981500   -0.118300   -1.003100
 H    2.161400   -0.563400   -2.048900
 C    4.614300    0.008200    0.225800
 H    4.371600   -0.126100    2.342000
 H    4.517900    0.053700   -1.926200
 O    5.931100    0.350600    0.402000
 C    6.701100    0.596100   -0.757300
 H    6.756700   -0.289700   -1.398300
 H    6.298300    1.432400   -1.337800
 H    7.700800    0.849900   -0.411700
