45
OMe-PAI-Ph_cc_TS_2
 C   -2.327400   -0.127100   -0.506200
 C   -2.487700   -0.533400    0.837300
 C   -3.584900   -0.124500    1.596700
 C   -4.516200    0.693900    0.988000
 C   -4.370000    1.103700   -0.348400
 C   -3.285200    0.702000   -1.100400
 C   -1.102300   -0.712400   -0.948700
 C   -0.585800   -1.455600    0.079800
 H   -3.701400   -0.428500    2.629100
 H   -5.376300    1.030100    1.554000
 H   -5.122100    1.745100   -0.790900
 H   -3.178200    1.018200   -2.131000
 N   -1.428500   -1.338000    1.177400
 C   -1.315400   -2.035100    2.444500
 H   -2.292800   -2.421100    2.733700
 H   -0.633400   -2.874100    2.339200
 H   -0.947600   -1.375200    3.232900
 N   -0.622700   -0.655500   -2.301300
 N    0.162100    0.238400   -2.636900
 C    0.652300    1.163500   -1.642000
 C   -0.021700    2.353500   -1.392100
 C    1.850700    0.896800   -1.005600
 C    0.490700    3.251200   -0.476400
 H   -0.950300    2.569800   -1.904600
 C    2.368700    1.795800   -0.080800
 H    2.379700   -0.024100   -1.215500
 C    1.685200    2.976800    0.190400
 H   -0.023700    4.178200   -0.257900
 H    3.298300    1.559500    0.416300
 O    2.101200    3.917900    1.074500
 C    3.305400    3.681100    1.786600
 H    3.234000    2.776000    2.395900
 H    4.158200    3.597000    1.107700
 H    3.444700    4.542200    2.435000
 C    0.689700   -2.182300    0.100100
 C    1.036600   -3.003400   -0.973100
 C    1.606200   -2.004400    1.138500
 C    2.270800   -3.634300   -1.006200
 H    0.334500   -3.140700   -1.786000
 C    2.837000   -2.641100    1.106200
 H    1.366000   -1.343100    1.961300
 C    3.173500   -3.457400    0.034000
 H    2.526600   -4.269000   -1.845800
 H    3.540000   -2.490300    1.916200
 H    4.137200   -3.951000    0.007900
