45
OMe-PAI-Ph_cc_TS_1
 C    0.564300    2.126700    0.613700
 C    0.271300    2.485200   -0.720900
 C    1.053600    3.407800   -1.416900
 C    2.130500    3.963500   -0.754400
 C    2.432900    3.616300    0.573600
 C    1.661400    2.703700    1.262900
 C   -0.421400    1.163000    0.985600
 C   -1.271100    0.986900   -0.074600
 H    0.832700    3.674500   -2.442500
 H    2.757900    4.679900   -1.270600
 H    3.285800    4.074000    1.059500
 H    1.896600    2.441400    2.287400
 N   -0.842100    1.790000   -1.123300
 C   -1.504600    1.991100   -2.398100
 H   -0.997700    1.453200   -3.201900
 H   -2.532100    1.644300   -2.333700
 H   -1.515300    3.054700   -2.636100
 N   -0.562000    0.615300    2.305900
 N    0.008400   -0.442400    2.595000
 C    0.747600   -1.152900    1.577900
 C    0.104400   -2.138000    0.835900
 C    2.100500   -0.926700    1.406700
 C    0.812300   -2.861100   -0.102700
 H   -0.951700   -2.323500    0.984500
 C    2.818300   -1.654100    0.463500
 H    2.603100   -0.172900    1.999200
 C    2.173000   -2.621400   -0.299600
 H    0.327200   -3.621400   -0.701300
 H    3.872100   -1.453000    0.337200
 O    2.778000   -3.381100   -1.246800
 C    4.160200   -3.172300   -1.490000
 H    4.353600   -2.150200   -1.826800
 H    4.756100   -3.380700   -0.597300
 H    4.434900   -3.869400   -2.277400
 C   -2.397200    0.049500   -0.169200
 C   -3.313700   -0.040100    0.878900
 C   -2.527600   -0.816600   -1.256700
 C   -4.339100   -0.972500    0.839100
 H   -3.215000    0.622800    1.729400
 C   -3.557200   -1.743900   -1.297000
 H   -1.804200   -0.783600   -2.061400
 C   -4.465600   -1.825200   -0.249600
 H   -5.043600   -1.030600    1.659700
 H   -3.643400   -2.412600   -2.144500
 H   -5.267100   -2.553000   -0.280300
