41

 C                  0.72637100    0.17402100   -0.00235400
 C                 -0.11464200   -1.02373200   -0.00653700
 C                 -1.55523700   -0.86074000   -0.01235100
 C                 -2.11978200    0.43362700   -0.01151500
 C                 -1.25275100    1.59220100   -0.00648100
 C                  0.08371000    1.48059700   -0.00353800
 C                 -2.40434400   -1.98941700   -0.02434300
 C                 -3.50204500    0.58604100   -0.02310500
 H                 -1.70475800    2.57474500   -0.00807000
 C                 -4.31154300   -0.54027500   -0.03380500
 C                 -3.78424300   -1.81921900   -0.03558400
 H                 -3.94123800    1.57449900   -0.03445200
 H                 -4.42726100   -2.68849900   -0.05670900
 N                  2.03704500    0.13423100    0.00377800
 N                  2.69278400   -0.98314700    0.00579900
 H                  2.16571100   -1.86135100   -0.00579200
 C                  4.09333700   -0.97768000    0.01862600
 C                  4.75373300   -2.20066400   -0.06766600
 C                  4.81354700    0.21116400    0.11255100
 C                  6.13717000   -2.23873100   -0.06753300
 H                  4.18992900   -3.12196000   -0.14240400
 C                  6.19583700    0.17152600    0.10921700
 H                  4.28841600    1.15223400    0.18809200
 C                  6.83753600   -1.05043200    0.01621200
 H                  6.65242700   -3.18869200   -0.13677100
 H                  6.76192900    1.09209700    0.17883700
 N                  8.31033000   -1.08447500    0.02534000
 H                  8.67102700   -1.91035900   -0.45948000
 H                  8.71009300   -0.26707800   -0.44324200
 O                  0.40648000   -2.16551800   -0.00674200
 O                 -1.92040900   -3.23862200   -0.02970400
 H                 -0.93679000   -3.17141300   -0.02211900
 S                 -6.10277300   -0.33350200    0.02792900
 O                 -6.42560800   -0.22544000    1.46854300
 O                 -6.38375500    0.90792300   -0.72242100
 O                 -6.66702900   -1.54478600   -0.60239600
 S                  1.06717400    3.00076900   -0.02883600
 O                  1.92957900    2.96224000    1.17008100
 O                  0.06855800    4.09075700    0.02149700
 O                  1.81604000    2.97427900   -1.30336200
 H                  8.68821400   -1.10316300    0.97748000

