37

 C                  0.75227100   -0.05104400    0.05023200
 C                 -0.13545800   -1.17035900    0.02403500
 C                 -1.56904100   -0.89281300    0.00088800
 C                 -2.05765100    0.42867500   -0.00224700
 C                 -1.13095200    1.51424200    0.01541500
 C                  0.20403500    1.27539400    0.03992900
 C                 -2.49916400   -1.97133400   -0.02104100
 C                 -3.44827400    0.66299700   -0.02260000
 H                 -1.49904800    2.53004100    0.00841300
 C                 -4.31393400   -0.40149600   -0.04072300
 C                 -3.85743800   -1.72342500   -0.04059200
 H                 -3.82922800    1.67519200   -0.02671900
 H                 -4.54706700   -2.55732200   -0.06040500
 N                  2.12451700   -0.10602100    0.05829700
 N                  2.74164200   -1.20077800    0.07033800
 C                  4.15239200   -1.02664300    0.01379000
 C                  4.93261800   -2.14051600    0.31586900
 C                  4.77341100    0.16948700   -0.36079700
 C                  6.31843700   -2.06971200    0.27247700
 H                  4.44104600   -3.06555500    0.59133000
 C                  6.15549600    0.24842800   -0.41378300
 H                  4.15508300    1.02265700   -0.61260900
 H                  6.93887500   -2.92369700    0.51182300
 H                  6.65914300    1.16134300   -0.70634000
 O                  0.25695300   -2.38232200    0.01830200
 O                 -2.05878900   -3.24022000   -0.02319800
 H                 -1.04589200   -3.15193700   -0.00838500
 S                 -6.08910300   -0.11333900   -0.04123800
 O                 -6.58449900   -0.65785000    1.24586200
 O                 -6.27051900    1.35067600   -0.15432200
 O                 -6.61687700   -0.85454900   -1.21094300
 S                  1.28603100    2.73513100    0.08922700
 O                  1.97984800    2.70351300    1.39891000
 O                  0.36375800    3.89348100   -0.01555100
 O                  2.20355200    2.65805700   -1.07039900
 C                  6.89771800   -0.87260900   -0.09168600
 F                  8.25321400   -0.79263400   -0.14551800

