50

 C                 -0.73548300    0.05496300   -0.07413900
 C                 -1.57310200   -1.10137900   -0.06701000
 C                 -3.01658000   -0.88955900   -0.02778200
 C                 -3.56545100    0.40770500    0.00388200
 C                 -2.68943700    1.53166100    0.00361300
 C                 -1.34359700    1.35287200   -0.03273000
 C                 -3.89789500   -2.01017500   -0.02125500
 C                 -4.96641100    0.57810400    0.03605900
 H                 -3.10125300    2.52988900    0.03432400
 C                 -5.78200400   -0.52408700    0.03825700
 C                 -5.26533800   -1.82461100    0.01121900
 H                 -5.39281100    1.57181200    0.05662500
 H                 -5.91652700   -2.68909500    0.01190200
 N                  0.64370800    0.06147700   -0.10516700
 N                  1.29887300   -1.00941600   -0.13168200
 C                  2.70397100   -0.80206500   -0.11547000
 C                  3.50930600   -1.91259500   -0.36482100
 C                  3.32324600    0.41602500    0.16017500
 C                  4.88822800   -1.81106600   -0.36551900
 H                  3.03541000   -2.86413300   -0.57715700
 C                  4.70527700    0.51832300    0.17587600
 H                  2.70505600    1.27721800    0.38159800
 H                  5.47685600   -2.68795600   -0.60063900
 H                  5.14654200    1.47500300    0.41784900
 O                 -1.13015000   -2.29865100   -0.09379000
 O                 -3.39857400   -3.25664900   -0.04855900
 H                 -2.38829600   -3.11638900   -0.07147300
 S                 -7.56731100   -0.31803700    0.08891600
 O                 -8.00741500   -0.93158400    1.36506200
 O                 -7.81808200    1.13919400    0.03427800
 O                 -8.08995200   -1.03948300   -1.09584000
 S                 -0.33644300    2.86628900   -0.04442100
 O                  0.57796800    2.80696200    1.11857800
 O                 -1.31584000    3.97516600    0.08516900
 O                  0.36101100    2.90625900   -1.35184500
 C                  5.52205500   -0.58928900   -0.09592900
 C                  7.52417000    0.81904800    0.04647900
 H                  7.43299600    1.16360600    1.08858500
 H                  7.02007800    1.54300700   -0.59447300
 C                  9.14086300   -1.48838000    0.16554600
 H                  9.71890500   -2.19425800    0.76146300
 H                  9.23853400   -1.75446200   -0.89496600
 C                  7.68156100   -1.52740300    0.57500200
 H                  7.28415200   -2.51397900    0.34791100
 H                  7.60376900   -1.37449300    1.66268900
 C                  8.99049000    0.78097900   -0.34579500
 H                  9.46180200    1.73949100   -0.13004800
 H                  9.08113500    0.57538700   -1.42025400
 O                  9.70381000   -0.20400700    0.38512600
 N                  6.92432200   -0.49559900   -0.13532500

