45

 C                  0.12848400    0.07537000   -0.03973800
 C                 -0.70440500   -1.08038600    0.01625200
 C                 -2.14694300   -0.87038300    0.03867000
 C                 -2.70065300    0.42500800   -0.00616000
 C                 -1.82871000    1.54837700   -0.05472800
 C                 -0.48046500    1.37027800   -0.05721200
 C                 -3.02613000   -1.99279000    0.09544900
 C                 -4.10385900    0.59128000   -0.00328300
 H                 -2.24167300    2.54585100   -0.09314200
 C                 -4.91541000   -0.51162100    0.04525700
 C                 -4.39375300   -1.81079800    0.09616800
 H                 -4.53331700    1.58317200   -0.04157700
 H                 -5.04241800   -2.67630100    0.13560900
 N                  1.51376000    0.07436200    0.00488200
 N                  2.15275000   -0.97934400   -0.22590400
 C                  3.55677500   -0.83594100   -0.09121400
 C                  4.34510500   -1.90027400   -0.51954100
 C                  4.19806100    0.28232300    0.44793500
 C                  5.72614700   -1.86055200   -0.43071100
 H                  3.85813200   -2.77271700   -0.94071300
 C                  5.57429300    0.33117900    0.54968600
 H                  3.59612500    1.11568500    0.78740100
 C                  6.38256200   -0.74447900    0.12148400
 H                  6.29297200   -2.70705100   -0.79003100
 H                  6.02840000    1.21587200    0.97262700
 O                 -0.25851500   -2.27936800    0.07684600
 O                 -2.52081700   -3.23597700    0.14750800
 H                 -1.50825700   -3.08881200    0.13443500
 S                 -6.70158600   -0.31080700    0.04780100
 O                 -7.17312300   -0.89588200    1.32628600
 O                 -6.95579200    1.14391300   -0.04746400
 O                 -7.19282000   -1.06128300   -1.13281300
 S                  0.52491900    2.88084700   -0.15319600
 O                  1.34925700    2.95293800    1.07483900
 O                 -0.45839400    3.99171400   -0.21660900
 O                  1.32074400    2.78349700   -1.39974600
 N                  7.75532400   -0.70824700    0.25582600
 C                  8.55760600   -1.71481500   -0.41411700
 H                  8.29861200   -2.71774500   -0.06941900
 H                  8.44172700   -1.68691600   -1.50569700
 H                  9.60574900   -1.54730200   -0.17645600
 C                  8.40320200    0.54596500    0.59354000
 H                  8.05181300    0.92431900    1.55529400
 H                  9.47426500    0.37734100    0.68026800
 H                  8.23593600    1.32369400   -0.16310900

