38

 C                  0.79740600    0.26299800    0.00800500
 C                  0.00742900   -0.92793000    0.01194400
 C                 -1.43396000   -0.80679800    0.00784300
 C                 -2.03758400    0.46784100   -0.00086200
 C                 -1.21079700    1.63738500   -0.00098800
 C                  0.13800000    1.54282100    0.00368000
 C                 -2.25807200   -1.96494100    0.00940700
 C                 -3.43886000    0.57599500   -0.01063500
 H                 -1.67816900    2.61191400   -0.00493000
 C                 -4.20567100   -0.56476300   -0.01138000
 C                 -3.63247000   -1.83803600   -0.00013900
 H                 -3.91063900    1.54901100   -0.02209300
 H                 -4.24451100   -2.73049100   -0.00439000
 N                  2.15288200    0.25257100    0.00556600
 N                  2.77705700   -0.85546700    0.00711100
 H                  2.19421500   -1.71489100    0.01131200
 C                  4.16727000   -0.95137500    0.00158600
 C                  4.73756500   -2.23147400   -0.00208500
 C                  5.00355800    0.17410700   -0.00140200
 C                  6.10138600   -2.39198200   -0.00865400
 H                  4.09017700   -3.10322300   -0.00018000
 C                  6.36653000    0.01994600   -0.00778600
 H                  4.56192300    1.16267900    0.00155000
 C                  6.99834300   -1.27236000   -0.01184300
 H                  6.53295500   -3.38650600   -0.01177400
 H                  7.01111800    0.89218900   -0.00991600
 O                  0.55702300   -2.08664000    0.01750500
 O                 -1.71903600   -3.19726000    0.01733800
 H                 -0.73361500   -3.06908600    0.01946000
 S                 -6.00158300   -0.43854500   -0.00803300
 O                 -6.43601700   -0.98969300    1.29669600
 O                 -6.30993000    0.99923500   -0.16098800
 O                 -6.45880100   -1.25750600   -1.15377900
 S                  1.08018800    3.09077000    0.00368200
 O                  1.88901300    3.08965800    1.24242800
 O                  0.05437200    4.15882500    0.00383900
 O                  1.88902200    3.09020200   -1.23508800
 O                  8.26046200   -1.40876200   -0.01774000

