40

 C                  0.67476300   -0.72855300    0.02913800
 C                 -0.49428200   -1.65726600   -0.01001300
 C                 -1.84578000   -1.10978500   -0.00778500
 C                 -2.04285300    0.28201100    0.06641000
 C                 -0.89354600    1.15790000    0.14234000
 C                  0.37133900    0.71012400    0.11179900
 C                 -2.96412700   -1.96680300   -0.06876600
 C                 -3.33269800    0.80263100    0.07749300
 H                 -1.07252900    2.22067700    0.23874200
 C                 -4.41518100   -0.06302400    0.00750200
 C                 -4.25049700   -1.43412500   -0.06488200
 H                 -3.48883000    1.87095000    0.14823200
 H                 -5.10479200   -2.09587700   -0.10611800
 N                  1.80133700   -1.34005400    0.02537200
 N                  2.98709800   -1.75035800    0.05008200
 H                  3.09007700   -2.76223800    0.10394700
 C                  4.24302600   -1.05881100   -0.01267000
 C                  5.29555000   -1.60295400    0.71292100
 C                  4.46503700    0.02567200   -0.84494600
 C                  6.56244800   -1.05208600    0.62796800
 H                  5.12479400   -2.46241200    1.35205600
 C                  5.73031800    0.57966000   -0.92731900
 H                  3.64967700    0.46088300   -1.40474300
 C                  6.79989000    0.05316400   -0.19522400
 H                  7.37527500   -1.47836400    1.20464500
 H                  5.89787400    1.43241700   -1.57592900
 N                  8.05629800    0.64585900   -0.24535500
 H                  8.83239700    0.05174600    0.00653800
 H                  8.24886900    1.19453900   -1.07039400
 O                 -0.31912400   -2.88698600   -0.05609700
 O                 -2.82055500   -3.29699000   -0.13008000
 H                 -1.84159200   -3.46766700   -0.11550800
 S                 -6.08051800    0.62500600   -0.05694500
 O                 -6.98359000   -0.46816300    0.35958400
 O                 -6.07308400    1.77069600    0.87741500
 O                 -6.27629100    1.03263200   -1.46696300
 S                  1.65767000    1.96350000    0.21010000
 O                  2.62316100    1.46531600    1.20954000
 O                  0.98227400    3.21001800    0.63082400
 O                  2.20730700    2.06155000   -1.16252800

