41

 C                  0.72637400    0.17403400   -0.00233400
 C                 -0.11463500   -1.02372200   -0.00652100
 C                 -1.55523000   -0.86073600   -0.01234600
 C                 -2.11978000    0.43362900   -0.01151600
 C                 -1.25275400    1.59220600   -0.00647800
 C                  0.08370800    1.48060800   -0.00352500
 C                 -2.40433300   -1.98941700   -0.02434200
 C                 -3.50204400    0.58603700   -0.02311700
 H                 -1.70476500    2.57474800   -0.00807200
 C                 -4.31153700   -0.54028200   -0.03382100
 C                 -3.78423200   -1.81922400   -0.03559300
 H                 -3.94124000    1.57449300   -0.03446900
 H                 -4.42724700   -2.68850700   -0.05672000
 N                  2.03704800    0.13425000    0.00380800
 N                  2.69277800   -0.98313400    0.00583600
 H                  2.16570000   -1.86133400   -0.00574900
 C                  4.09333200   -0.97767600    0.01864500
 C                  4.75371800   -2.20066500   -0.06764800
 C                  4.81355100    0.21116300    0.11255200
 C                  6.13715500   -2.23874200   -0.06753300
 H                  4.18990700   -3.12195800   -0.14237200
 C                  6.19584100    0.17151600    0.10920000
 H                  4.28842800    1.15223700    0.18809400
 C                  6.83753000   -1.05044700    0.01619500
 H                  6.65240400   -3.18870700   -0.13677100
 H                  6.76194100    1.09208300    0.17880700
 N                  8.31032400   -1.08450100    0.02530400
 H                  8.67100900   -1.91039100   -0.45951500
 H                  8.71008700   -0.26711000   -0.44328900
 O                  0.40649300   -2.16550600   -0.00672000
 O                 -1.92039300   -3.23861900   -0.02969700
 H                 -0.93677400   -3.17140700   -0.02210500
 S                 -6.10276800   -0.33351600    0.02790000
 O                 -6.42561400   -0.22545300    1.46851200
 O                 -6.38375000    0.90790600   -0.72245500
 O                 -6.66701500   -1.54480400   -0.60242700
 S                  1.06716500    3.00078400   -0.02881900
 O                  1.92956200    2.96226000    1.17010500
 O                  0.06854500    4.09076700    0.02150400
 O                  1.81604100    2.97429400   -1.30333900
 H                  8.68822100   -1.10318500    0.97743900

