40

 C                  0.76046300    0.22750500    0.01353900
 C                 -0.05229500   -0.96945300    0.01875700
 C                 -1.49549200   -0.83164100    0.01068600
 C                 -2.08148100    0.45033400   -0.00083900
 C                 -1.23722900    1.61768700   -0.00106800
 C                  0.10474700    1.52036100    0.00582500
 C                 -2.32941200   -1.97745400    0.01087700
 C                 -3.47405500    0.57865500   -0.01357400
 H                 -1.70077000    2.59435100   -0.00730500
 C                 -4.25933200   -0.55597500   -0.01552300
 C                 -3.70615600   -1.83152500   -0.00291800
 H                 -3.93439600    1.55698900   -0.02711100
 H                 -4.32882300   -2.71652900   -0.00898100
 N                  2.09178100    0.20041300    0.01173300
 N                  2.73240500   -0.90748300    0.01664700
 H                  2.18189600   -1.77777900    0.02308700
 C                  4.13972600   -0.95406600    0.00896600
 C                  4.74936100   -2.20525500    0.00016700
 C                  4.92410300    0.19588200    0.00655500
 C                  6.12756100   -2.30954100   -0.01001400
 H                  4.14330000   -3.10406000   -0.00102200
 C                  6.30105800    0.08897700   -0.00336600
 H                  4.45352500    1.16874300    0.01124400
 C                  6.92999500   -1.16337700   -0.01319300
 H                  6.59151500   -3.28883900   -0.01622600
 H                  6.90524600    0.98886700   -0.00345200
 N                  8.31050400   -1.26321700    0.02841100
 H                  8.70589500   -2.13451300   -0.29186300
 H                  8.82839200   -0.45862700   -0.29167700
 O                  0.48353400   -2.11658400    0.02813900
 O                 -1.81597700   -3.21794400    0.02114600
 H                 -0.83214100   -3.11986000    0.02676200
 S                 -6.05557300   -0.40205200   -0.01275700
 O                 -6.49192200   -0.92611900    1.30124900
 O                 -6.33730300    1.03781200   -0.18742600
 O                 -6.52275700   -1.23163800   -1.14528400
 S                  1.05628000    3.06188200    0.00424100
 O                  1.86163100    3.05256600    1.24416900
 O                  0.03573100    4.13337100    0.00104400
 O                  1.86491700    3.04844900   -1.23353900

