45
OMe-PAI_eclipsed-trans
 C    2.383500   -1.673000    0.000000
 C    3.605400   -0.977600    0.000200
 C    4.834700   -1.633600    0.000300
 C    4.815100   -3.015700    0.000200
 C    3.604200   -3.727000    0.000000
 C    2.389000   -3.070000   -0.000200
 C    1.345900   -0.677400   -0.000200
 C    1.968500    0.564000    0.000100
 H    5.769400   -1.087500    0.000500
 H    5.751200   -3.560400    0.000300
 H    3.628200   -4.810000   -0.000100
 H    1.456900   -3.621000   -0.000300
 N    3.326000    0.375800    0.000300
 C    4.343400    1.410100    0.000500
 H    4.969600    1.323500   -0.888400
 H    3.863900    2.384400    0.001000
 H    4.969800    1.322800    0.889300
 N    0.004800   -1.024600   -0.000500
 N   -0.819000   -0.084600   -0.000800
 C   -2.177000   -0.472700   -0.000500
 C   -2.632000   -1.796600    0.000100
 C   -3.105000    0.559400   -0.000800
 C   -3.981400   -2.063600    0.000300
 H   -1.909400   -2.600600    0.000400
 C   -4.469500    0.301600   -0.000700
 H   -2.739700    1.578900   -0.001300
 C   -4.912600   -1.017400   -0.000100
 H   -4.352800   -3.080700    0.000800
 H   -5.167100    1.126300   -0.001000
 O   -6.213300   -1.388400    0.000200
 C   -7.203900   -0.370800   -0.000200
 H   -7.127400    0.255500    0.892400
 H   -7.127500    0.254700   -0.893300
 H   -8.161200   -0.885200    0.000100
 C    1.387000    1.921600    0.000200
 C    1.116100    2.568300   -1.202300
 C    1.114900    2.567700    1.202700
 C    0.567100    3.842200   -1.201600
 H    1.326300    2.065200   -2.138200
 C    0.565900    3.841500    1.202100
 H    1.324200    2.064100    2.138600
 C    0.288300    4.479800    0.000300
 H    0.354800    4.337000   -2.141400
 H    0.352700    4.335900    2.142000
 H   -0.142500    5.473600    0.000400
