39

 C                  0.72778600    0.20623200   -0.15751400
 C                 -0.10090600   -1.00977500   -0.23828700
 C                 -1.52992500   -0.85395800   -0.14464100
 C                 -2.09831300    0.43643400   -0.00611300
 C                 -1.23578100    1.60000200    0.01216600
 C                  0.09968200    1.50993500   -0.07210400
 C                 -2.37108200   -1.98285500   -0.18794400
 C                 -3.46936100    0.58092700    0.08829400
 H                 -1.70123600    2.57482600    0.09074800
 C                 -4.28086500   -0.55398100    0.04755000
 C                 -3.75528900   -1.81796300   -0.09041800
 H                 -3.91060700    1.56424300    0.18098500
 H                 -4.39817400   -2.68661500   -0.13158300
 N                  2.03731000    0.11576200   -0.10156400
 N                  2.76337500   -0.97075400   -0.17356900
 H                  2.22476000   -1.82667300   -0.32789800
 C                  4.15663400   -0.97283300    0.00334300
 C                  4.82496200   -2.15101100   -0.32563800
 C                  4.85580100    0.12841100    0.49043900
 C                  6.19718400   -2.23010400   -0.17434200
 H                  4.27247500   -3.00235500   -0.70297200
 C                  6.23194300    0.05219200    0.63122000
 H                  4.35636300    1.04458500    0.77714800
 H                  6.73702200   -3.13379400   -0.42317300
 H                  6.79922900    0.89282700    1.00745800
 O                  0.45218700   -2.11804000   -0.36272800
 O                 -1.89955900   -3.22287300   -0.32024900
 H                 -0.92091500   -3.18201400   -0.37252300
 S                 -6.06607400   -0.35140900    0.23192400
 O                 -6.26796000   -0.11144200    1.67641500
 O                 -6.40729500    0.81558000   -0.60558400
 O                 -6.65801000   -1.61717900   -0.24112500
 S                  1.07846000    3.02385400   -0.19227500
 O                  2.42573500    2.58652800    0.31412400
 O                  0.43414700    4.01244500    0.67115100
 O                  1.11373100    3.37284100   -1.61619900
 C                  6.87391800   -1.12271100    0.29728500
 F                  8.21390000   -1.19392600    0.44227800
 H                  2.51089000    1.06958800    0.04664200

