43

 C                  0.39181700    0.31846100    0.10248700
 C                 -0.36943100   -0.93155800    0.17856700
 C                 -1.80609400   -0.84826500    0.09580400
 C                 -2.43972100    0.41193500   -0.03555700
 C                 -1.63758200    1.61620100   -0.06079400
 C                 -0.29820700    1.58891500    0.01493200
 C                 -2.58922700   -2.01926800    0.13298600
 C                 -3.81858500    0.48603400   -0.12613200
 H                 -2.15045300    2.56706500   -0.13514600
 C                 -4.56969400   -0.68724100   -0.08546000
 C                 -3.97880400   -1.92508600    0.04164900
 H                 -4.30722300    1.44519300   -0.23421700
 H                 -4.57617200   -2.82633500    0.06152100
 N                  1.71077000    0.29336000    0.05413600
 N                  2.48362700   -0.75246600    0.13317400
 H                  1.97571800   -1.63461200    0.25757100
 C                  3.88073100   -0.69708100    0.02143000
 C                  4.56915600   -1.89314000    0.18786500
 C                  4.58022900    0.48217100   -0.24418900
 C                  5.95024200   -1.92752200    0.08955400
 H                  4.02576600   -2.80662400    0.39724300
 C                  5.95394100    0.44625700   -0.33805000
 H                  4.07686100    1.43036800   -0.38355200
 H                  6.46091200   -2.87002700    0.22179000
 H                  6.51182500    1.35024800   -0.54487800
 O                  0.23910700   -2.01642300    0.28893500
 O                 -2.05142300   -3.23515000    0.25044100
 H                 -1.07563400   -3.13992800    0.29679500
 S                 -6.37013800   -0.56740800   -0.15433500
 O                 -6.76799900   -0.08727100    1.18610400
 O                 -6.64818400    0.40836200   -1.22732500
 O                 -6.84642900   -1.93159800   -0.45363400
 S                  0.60581300    3.14892300    0.13049200
 O                  0.62992200    3.50131200    1.55431800
 O                 -0.08897900    4.10564400   -0.73035300
 O                  1.97140200    2.77978400   -0.38122700
 C                  6.65253700   -0.75364200   -0.17449500
 O                  7.99471100   -0.67680900   -0.29069400
 C                  8.76349300   -1.86565700   -0.13803900
 H                  8.49363000   -2.60557500   -0.89477400
 H                  9.79987000   -1.56868900   -0.27376000
 H                  8.63305400   -2.29021800    0.85981400
 H                  2.13443000    1.26676000   -0.10595200

