45
OMe-PAI-Ph_inversion_TS_1
 C   -0.813300    1.790900   -0.166100
 C   -2.107400    2.296800    0.021700
 C   -2.379300    3.660200    0.044200
 C   -1.312500    4.523400   -0.137500
 C   -0.014900    4.037000   -0.343300
 C    0.243300    2.677800   -0.367100
 C   -0.929700    0.337100   -0.147000
 C   -2.307300    0.060600    0.030200
 H   -3.383900    4.037900    0.184000
 H   -1.486700    5.592200   -0.130500
 H    0.796600    4.739100   -0.490600
 H    1.244800    2.307600   -0.543800
 N   -2.986300    1.225800    0.169500
 C   -4.380000    1.401800    0.544300
 H   -4.981100    1.702300   -0.315200
 H   -4.769300    0.471200    0.945700
 H   -4.447500    2.170900    1.312700
 N    0.009700   -0.576600   -0.260200
 N    0.893800   -1.441800   -0.384900
 C    2.245800   -1.003900   -0.174700
 C    2.594100    0.119600    0.575500
 C    3.250100   -1.801800   -0.700000
 C    3.920400    0.446600    0.765300
 H    1.813800    0.720600    1.023900
 C    4.589500   -1.475400   -0.530600
 H    2.966500   -2.686800   -1.257200
 C    4.928700   -0.342300    0.204500
 H    4.208600    1.308700    1.354200
 H    5.350300   -2.106700   -0.966500
 O    6.200000    0.066600    0.440800
 C    7.263600   -0.705000   -0.094600
 H    7.255200   -1.722900    0.304300
 H    7.217000   -0.741200   -1.186300
 H    8.179700   -0.205700    0.210700
 C   -2.929200   -1.261800    0.064800
 C   -4.101300   -1.524500   -0.650200
 C   -2.313300   -2.301300    0.764200
 C   -4.648500   -2.797200   -0.655700
 H   -4.572000   -0.737500   -1.225500
 C   -2.866100   -3.572600    0.757300
 H   -1.403100   -2.109200    1.314900
 C   -4.034100   -3.823800    0.050300
 H   -5.553400   -2.989200   -1.218700
 H   -2.382600   -4.369900    1.308300
 H   -4.463700   -4.818000    0.045800
