41

 C                  1.04848800    1.07569100   -0.78446900
 C                  0.26958400   -0.06987500   -1.43634000
 C                 -1.07470500   -0.32622600   -0.93719700
 C                 -1.70841300    0.60258200   -0.08357700
 C                 -1.02363900    1.84379300    0.25066900
 C                  0.24360000    2.09391600   -0.09030700
 C                 -1.76563400   -1.48176300   -1.33498800
 C                 -2.98018900    0.35666100    0.38825200
 H                 -1.57653400    2.59642600    0.79859400
 C                 -3.62749400   -0.82876200    0.02347400
 C                 -3.04442100   -1.73855400   -0.82353000
 H                 -3.47237100    1.07475000    1.03087900
 H                 -3.56412800   -2.64185800   -1.11227400
 N                  2.31681700    1.20065400   -0.74909400
 N                  3.10094800    0.17835300   -1.34047500
 H                  3.75528600    0.61766000   -1.97654600
 C                  3.72549400   -0.70347400   -0.46570000
 C                  4.85627900   -1.40164000   -0.91768600
 C                  3.24053700   -0.95738600    0.81877200
 C                  5.47616900   -2.33218500   -0.11225700
 H                  5.24452100   -1.20972600   -1.91063700
 C                  3.86780100   -1.89290300    1.62930900
 H                  2.37978900   -0.42593100    1.19771200
 C                  4.97258000   -2.56942400    1.15844300
 H                  6.34673800   -2.86525000   -0.47456600
 H                  3.48307800   -2.07963800    2.62487000
 N                  5.63033800   -3.57253600    2.01494700
 H                  5.26469900   -3.54383200    2.96960700
 H                  5.49140900   -4.52662600    1.66957400
 O                  0.75404900   -0.73668300   -2.34047000
 O                 -1.24669800   -2.36898100   -2.18708700
 H                 -0.38596100   -2.01337100   -2.50110100
 S                 -5.27915200   -1.14493100    0.67697000
 O                 -5.10818200   -1.16755200    2.14504200
 O                 -6.09926700   -0.00910200    0.20629000
 O                 -5.69094300   -2.44450900    0.11177100
 S                  0.96106000    3.68625600    0.38912400
 O                  1.93475500    3.40676600    1.46319400
 O                 -0.19815400    4.47215200    0.86320400
 O                  1.56571100    4.23602400   -0.84040400
 H                  6.63986200   -3.41672500    2.07919400

