38

 C                  0.77064300    0.18781000   -0.03031900
 C                 -0.06292100   -1.00531600   -0.03920400
 C                 -1.50434900   -0.84582300   -0.03087300
 C                 -2.07086500    0.44559500   -0.01780200
 C                 -1.20847400    1.60425800   -0.01774300
 C                  0.12971900    1.49188600   -0.02424000
 C                 -2.35323700   -1.97815600   -0.03642300
 C                 -3.45795600    0.59490100   -0.00853800
 H                 -1.66095000    2.58637100   -0.01369500
 C                 -4.26203900   -0.52998800   -0.01333500
 C                 -3.72996700   -1.81134900   -0.02945700
 H                 -3.90394500    1.57998700   -0.00492300
 H                 -4.36693600   -2.68590400   -0.04327700
 N                  2.08979800    0.14705000   -0.02085500
 N                  2.73556900   -0.96624200   -0.02549800
 H                  2.19787800   -1.84015800   -0.04638800
 C                  4.14294100   -0.98388800    0.00477100
 C                  4.77936200   -2.21673100   -0.10540100
 C                  4.88415500    0.18603500    0.14579200
 C                  6.16318400   -2.28647000   -0.07718300
 H                  4.19632200   -3.12293400   -0.21606000
 C                  6.26739200    0.11929800    0.17156100
 H                  4.37684800    1.13566400    0.23920200
 H                  6.67979000   -3.23327400   -0.16163100
 H                  6.86855600    1.01237000    0.28123300
 O                  0.45919600   -2.15156500   -0.05150100
 O                 -1.86193100   -3.22616000   -0.05193300
 H                 -0.87778000   -3.15006000   -0.05542800
 S                 -6.05484000   -0.34487100    0.05187700
 O                 -6.43298900   -0.72720100    1.43100700
 O                 -6.32295700    1.07578200   -0.25172800
 O                 -6.58505200   -1.27460300   -0.96828300
 S                  1.10955000    3.01480500   -0.04229900
 O                  1.94834200    2.98605800    1.17414300
 O                  0.10825600    4.10359500   -0.01718800
 O                  1.88350500    2.98536300   -1.30179800
 C                  6.87783000   -1.11448900    0.05959100
 F                  8.23042600   -1.17580600    0.08702800

