51

 C                 -0.73244200    0.35544500   -0.00508900
 C                 -1.47195800   -0.89016800   -0.02695500
 C                 -2.92108800   -0.83904400   -0.02715900
 C                 -3.58302800    0.40535000   -0.00654900
 C                 -2.81066800    1.62213300    0.01944800
 C                 -1.46592100    1.60628900    0.02219400
 C                 -3.68443400   -2.03249300   -0.04733800
 C                 -4.98022000    0.44998200   -0.00690600
 H                 -3.33309600    2.56843100    0.04136900
 C                 -5.69628500   -0.72983600   -0.02675400
 C                 -5.06789300   -1.96943400   -0.04681200
 H                 -5.49878400    1.39867100    0.00656000
 H                 -5.63631300   -2.89011800   -0.06439100
 N                  0.59512600    0.41116500   -0.01243000
 N                  1.30740200   -0.65377600   -0.03545700
 H                  0.81860900   -1.55903400   -0.04378200
 C                  2.71365100   -0.59913600   -0.05312100
 C                  3.41649100   -1.80114800   -0.03610400
 C                  3.41146800    0.59958100   -0.08827600
 C                  4.79619000   -1.80299500   -0.05756200
 H                  2.88035000   -2.74310600   -0.01699700
 C                  4.79629000    0.59496600   -0.10056000
 H                  2.87091900    1.53587700   -0.09623500
 H                  5.30807300   -2.75486800   -0.07255100
 H                  5.30530700    1.54742300   -0.10816800
 O                 -0.86730400   -2.00059100   -0.04648100
 O                 -3.09797600   -3.23976100   -0.06780800
 H                 -2.12193600   -3.08425700   -0.06527500
 S                 -7.49849400   -0.68544300   -0.00474000
 O                 -7.88727900   -1.31104500    1.27907400
 O                 -7.86891600    0.74207800   -0.09355300
 O                 -7.92564900   -1.47535000   -1.18074000
 S                 -0.60585000    3.19850800    0.08773700
 O                  0.15966700    3.19352000    1.35299400
 O                 -1.68602200    4.20973100    0.08285500
 O                  0.24132700    3.26944400   -1.12105900
 C                  5.52609900   -0.60346600   -0.09191700
 C                  7.62724000    0.64654800   -0.26160300
 H                  7.59396600    1.20219300    0.68805200
 H                  7.16016200    1.26106500   -1.03130000
 C                  9.07321400   -1.71555600    0.27823400
 H                  9.61772400   -2.33818600    0.98752700
 H                  9.11433000   -2.18609600   -0.71260000
 C                  7.63040400   -1.56290300    0.71859200
 H                  7.15749100   -2.54153100    0.69050900
 H                  7.60168500   -1.20343900    1.75821300
 C                  9.07271600    0.41368600   -0.66422300
 H                  9.61976500    1.35589900   -0.65270600
 H                  9.11181700   -0.00608000   -1.67769300
 O                  9.73444900   -0.46101700    0.23485300
 N                  6.92348400   -0.62521200   -0.15622900

