46

 C                  0.13617200    0.32428700    0.01593200
 C                 -0.62486200   -0.90343800    0.02002800
 C                 -2.07227300   -0.82579100    0.00676000
 C                 -2.71123700    0.43055000   -0.01299000
 C                 -1.91677200    1.63109500   -0.01525600
 C                 -0.57131800    1.58817300   -0.00049400
 C                 -2.85845800   -2.00540100    0.01101900
 C                 -4.10863800    0.50044500   -0.03004000
 H                 -2.41983800    2.58788200   -0.02796700
 C                 -4.84573200   -0.66529500   -0.02639700
 C                 -4.23966400   -1.91721600   -0.00544200
 H                 -4.60879500    1.45885800   -0.05098000
 H                 -4.82518200   -2.82726300   -0.00768800
 N                  1.47042100    0.35277000    0.02373500
 N                  2.15296400   -0.72812100    0.03438000
 H                  1.63479700   -1.61916800    0.03695400
 C                  3.55924600   -0.72174600    0.03854600
 C                  4.22109800   -1.94516800    0.02081800
 C                  4.30170800    0.45490100    0.05056000
 C                  5.60099900   -2.00004100    0.01944600
 H                  3.65257500   -2.86828700    0.00243400
 C                  5.68063400    0.40677000    0.04955600
 H                  3.79368300    1.40909300    0.05713300
 C                  6.37601800   -0.82244100    0.04388600
 H                  6.07671000   -2.96911800   -0.00188600
 H                  6.22465400    1.33971100    0.05306300
 O                 -0.04183600   -2.02942000    0.03442200
 O                 -2.29265100   -3.22315100    0.02827700
 H                 -1.31351700   -3.08185800    0.03477800
 S                 -6.64643900   -0.58551300   -0.01820400
 O                 -7.05403900   -1.08265900    1.31549600
 O                 -6.98933400    0.83487700   -0.23846100
 O                 -7.08544200   -1.47113600   -1.11914500
 S                  0.31579700    3.16764300    0.00242000
 O                  1.10385800    3.19549900    1.25326200
 O                 -0.74749100    4.19676200   -0.01829600
 O                  1.14100000    3.18443300   -1.22439100
 N                  7.74630000   -0.86768600    0.06646300
 C                  8.42628400   -2.13674100   -0.11631500
 H                  8.14317200   -2.85197200    0.65939800
 H                  8.21179600   -2.58648100   -1.09348700
 H                  9.49904900   -1.97724300   -0.04196100
 C                  8.51095900    0.35637300   -0.08901200
 H                  8.27586100    1.07251300    0.70160400
 H                  9.57034000    0.12277700   -0.01736700
 H                  8.32967600    0.84019900   -1.05648300

