45
MDL molfile
 C   -2.050800   -1.757600    0.153700
 C   -3.380800   -1.350600   -0.093100
 C   -4.417900   -2.278000   -0.206300
 C   -4.101900   -3.613900   -0.052300
 C   -2.784900   -4.031400    0.207400
 C   -1.757200   -3.116400    0.311200
 C   -1.269600   -0.561500    0.181200
 C   -2.109400    0.500900   -0.025800
 H   -5.436400   -1.965400   -0.398700
 H   -4.887000   -4.356200   -0.130500
 H   -2.578100   -5.088100    0.325100
 H   -0.741600   -3.439500    0.505100
 N   -3.403300    0.017600   -0.196600
 C   -4.575000    0.779800   -0.582800
 H   -5.265800    0.900700    0.254300
 H   -4.270800    1.762700   -0.931800
 H   -5.091400    0.270000   -1.396600
 N    0.106800   -0.500900    0.532100
 N    0.875000   -0.554000   -0.441000
 C    2.256500   -0.505000   -0.130600
 C    2.773500   -0.381700    1.164000
 C    3.122600   -0.582000   -1.210500
 C    4.132900   -0.340200    1.356100
 H    2.091500   -0.319000    2.000400
 C    4.497600   -0.541700   -1.027900
 H    2.703400   -0.676800   -2.204300
 C    5.007000   -0.420500    0.262100
 H    4.559200   -0.244300    2.346400
 H    5.151700   -0.604300   -1.884900
 O    6.320300   -0.370900    0.561200
 C    7.262100   -0.446300   -0.501400
 H    7.169700   -1.390900   -1.042600
 H    7.139900    0.389000   -1.195000
 H    8.241900   -0.390000   -0.035000
 C   -1.779100    1.932500   -0.011900
 C   -2.498500    2.828800    0.782300
 C   -0.706100    2.411500   -0.765300
 C   -2.155100    4.171100    0.817000
 H   -3.320100    2.468000    1.388800
 C   -0.359800    3.754000   -0.722800
 H   -0.149200    1.724800   -1.388900
 C   -1.084100    4.637700    0.065300
 H   -2.720600    4.853700    1.439600
 H    0.475000    4.111100   -1.313500
 H   -0.815300    5.686600    0.094900
